example/Texas7k/case.raw
0, 100, 33, 0, 0, 60  / 27-Apr-2026 09:27:52 - MATPOWER 7.1


110001, 'EDNA 1 1    ',       138, 1,    7,    1, 1,   1.0370926,   -4.242394,  1.1,  0.9,  1.1,  0.9
110002, 'EDNA 1 2    ',      13.8, 1,    7,    1, 1,   1.0370926,   -4.242394,  1.1,  0.9,  1.1,  0.9
110003, 'EDNA 1 3    ',      13.8, 1,    7,    1, 1,   1.0370926,   -4.242394,  1.1,  0.9,  1.1,  0.9
110004, 'EDNA 1 4    ',         1, 1,    7,    1, 1,   1.0370926,   -4.242394,  1.1,  0.9,  1.1,  0.9
110005, 'LANE CITY 1 ',       138, 1,    7,    1, 1,   1.0218551,  -11.384533,  1.1,  0.9,  1.1,  0.9
110006, 'LANE CITY 1 ',      13.8, 1,    7,    1, 1,   1.0218551,  -11.384533,  1.1,  0.9,  1.1,  0.9
110007, 'LANE CITY 1 ',      13.8, 1,    7,    1, 1,   1.0218551,  -11.384533,  1.1,  0.9,  1.1,  0.9
110008, 'LANE CITY 1 ',         1, 1,    7,    1, 1,   1.0218551,  -11.384533,  1.1,  0.9,  1.1,  0.9
110009, 'MATAGORDA 1 ',       138, 1,    7,    1, 1,    1.028601,   -3.558826,  1.1,  0.9,  1.1,  0.9
110010, 'MATAGORDA 1 ',      13.8, 1,    7,    1, 1,    1.028601,   -3.558826,  1.1,  0.9,  1.1,  0.9
110011, 'MATAGORDA 1 ',      13.8, 1,    7,    1, 1,    1.028601,   -3.558826,  1.1,  0.9,  1.1,  0.9
110012, 'MATAGORDA 1 ',         1, 1,    7,    1, 1,    1.028601,   -3.558826,  1.1,  0.9,  1.1,  0.9
110013, 'HUNGERFORD 1',       138, 1,    7,    1, 1,    1.011557,  -12.681401,  1.1,  0.9,  1.1,  0.9
110014, 'HUNGERFORD 1',      13.8, 1,    7,    1, 1,    1.011557,  -12.681401,  1.1,  0.9,  1.1,  0.9
110015, 'HUNGERFORD 1',      13.8, 1,    7,    1, 1,    1.011557,  -12.681401,  1.1,  0.9,  1.1,  0.9
110016, 'HUNGERFORD 1',         1, 1,    7,    1, 1,    1.011557,  -12.681401,  1.1,  0.9,  1.1,  0.9
110017, 'EAST BERNARD',       138, 1,    7,    1, 1,   1.0264433,  -16.738404,  1.1,  0.9,  1.1,  0.9
110018, 'EAST BERNARD',      13.8, 1,    7,    1, 1,   1.0264433,  -16.738404,  1.1,  0.9,  1.1,  0.9
110019, 'EAST BERNARD',      13.8, 1,    7,    1, 1,   1.0264433,  -16.738404,  1.1,  0.9,  1.1,  0.9
110020, 'EAST BERNARD',         1, 1,    7,    1, 1,   1.0264433,  -16.738404,  1.1,  0.9,  1.1,  0.9
110021, 'EL CAMPO 1 1',       138, 1,    7,    1, 1,   1.0251749,   -6.828781,  1.1,  0.9,  1.1,  0.9
110022, 'EL CAMPO 1 2',        22, 1,    7,    1, 1,   1.0251749,   -6.828781,  1.1,  0.9,  1.1,  0.9
110023, 'EL CAMPO 1 3',        22, 1,    7,    1, 1,   1.0251749,   -6.828781,  1.1,  0.9,  1.1,  0.9
110024, 'EL CAMPO 1 4',         1, 1,    7,    1, 1,   1.0251749,   -6.828781,  1.1,  0.9,  1.1,  0.9
110025, 'EL CAMPO 2 1',       138, 1,    7,    1, 1,   1.0260746,   -6.831657,  1.1,  0.9,  1.1,  0.9
110026, 'EL CAMPO 2 2',      13.8, 1,    7,    1, 1,   1.0260746,   -6.831657,  1.1,  0.9,  1.1,  0.9
110027, 'EL CAMPO 2 3',      13.8, 1,    7,    1, 1,   1.0260746,   -6.831657,  1.1,  0.9,  1.1,  0.9
110028, 'EL CAMPO 2 4',         1, 1,    7,    1, 1,   1.0260746,   -6.831657,  1.1,  0.9,  1.1,  0.9
110029, 'WHARTON 1 1 ',       138, 1,    7,    1, 1,   1.0279168,   -8.722837,  1.1,  0.9,  1.1,  0.9
110030, 'WHARTON 1 2 ',      13.8, 1,    7,    1, 1,   1.0279168,   -8.722837,  1.1,  0.9,  1.1,  0.9
110031, 'WHARTON 1 3 ',      13.8, 1,    7,    1, 1,   1.0279168,   -8.722837,  1.1,  0.9,  1.1,  0.9
110032, 'WHARTON 1 4 ',         1, 1,    7,    1, 1,   1.0279168,   -8.722837,  1.1,  0.9,  1.1,  0.9
110033, 'CEDAR LANE 1',       138, 1,    7,    1, 1,   1.0164845,  -10.439684,  1.1,  0.9,  1.1,  0.9
110034, 'CEDAR LANE 1',      13.8, 1,    7,    1, 1,   1.0164845,  -10.439684,  1.1,  0.9,  1.1,  0.9
110035, 'CEDAR LANE 1',      13.8, 1,    7,    1, 1,   1.0164845,  -10.439684,  1.1,  0.9,  1.1,  0.9
110036, 'CEDAR LANE 1',         1, 1,    7,    1, 1,   1.0164845,  -10.439684,  1.1,  0.9,  1.1,  0.9
110037, 'NADA 1 1    ',       138, 1,    7,    1, 1,    1.032465,   -7.927104,  1.1,  0.9,  1.1,  0.9
110038, 'NADA 1 2    ',      13.8, 1,    7,    1, 1,    1.032465,   -7.927104,  1.1,  0.9,  1.1,  0.9
110039, 'NADA 1 3    ',      13.8, 1,    7,    1, 1,    1.032465,   -7.927104,  1.1,  0.9,  1.1,  0.9
110040, 'NADA 1 4    ',         1, 1,    7,    1, 1,    1.032465,   -7.927104,  1.1,  0.9,  1.1,  0.9
110041, 'EGYPT 1 1   ',       138, 1,    7,    1, 1,   1.0306011,   -5.898392,  1.1,  0.9,  1.1,  0.9
110042, 'EGYPT 1 2   ',        24, 1,    7,    1, 1,   1.0306011,   -5.898392,  1.1,  0.9,  1.1,  0.9
110043, 'EGYPT 1 3   ',        24, 1,    7,    1, 1,   1.0306011,   -5.898392,  1.1,  0.9,  1.1,  0.9
110044, 'EGYPT 1 4   ',         1, 1,    7,    1, 1,   1.0306011,   -5.898392,  1.1,  0.9,  1.1,  0.9
110045, 'LOUISE 1 1  ',       138, 1,    7,    1, 1,   1.0287298,   -8.189099,  1.1,  0.9,  1.1,  0.9
110046, 'LOUISE 1 2  ',      13.8, 1,    7,    1, 1,   1.0287298,   -8.189099,  1.1,  0.9,  1.1,  0.9
110047, 'LOUISE 1 3  ',      13.8, 1,    7,    1, 1,   1.0287298,   -8.189099,  1.1,  0.9,  1.1,  0.9
110048, 'LOUISE 1 4  ',         1, 1,    7,    1, 1,   1.0287298,   -8.189099,  1.1,  0.9,  1.1,  0.9
110049, 'GANADO 1 1  ',       138, 1,    7,    1, 1,   1.0246793,   -5.885151,  1.1,  0.9,  1.1,  0.9
110050, 'GANADO 1 2  ',        18, 1,    7,    1, 1,   1.0246793,   -5.885151,  1.1,  0.9,  1.1,  0.9
110051, 'GANADO 1 3  ',        18, 1,    7,    1, 1,   1.0246793,   -5.885151,  1.1,  0.9,  1.1,  0.9
110052, 'GANADO 1 4  ',         1, 1,    7,    1, 1,   1.0246793,   -5.885151,  1.1,  0.9,  1.1,  0.9
110053, 'LOUISE 2 1  ',       138, 1,    7,    1, 1,   1.0261359,   -6.415464,  1.1,  0.9,  1.1,  0.9
110054, 'LOUISE 2 2  ',      13.8, 1,    7,    1, 1,   1.0261359,   -6.415464,  1.1,  0.9,  1.1,  0.9
110055, 'LOUISE 2 3  ',      13.8, 1,    7,    1, 1,   1.0261359,   -6.415464,  1.1,  0.9,  1.1,  0.9
110056, 'LOUISE 2 4  ',         1, 1,    7,    1, 1,   1.0261359,   -6.415464,  1.1,  0.9,  1.1,  0.9
110057, 'LOUISE 3 1  ',       138, 1,    7,    1, 1,   1.0273869,   -7.223056,  1.1,  0.9,  1.1,  0.9
110058, 'LOUISE 3 2  ',        24, 1,    7,    1, 1,   1.0273869,   -7.223056,  1.1,  0.9,  1.1,  0.9
110059, 'LOUISE 3 3  ',        24, 1,    7,    1, 1,   1.0273869,   -7.223056,  1.1,  0.9,  1.1,  0.9
110060, 'LOUISE 3 4  ',         1, 1,    7,    1, 1,   1.0273869,   -7.223056,  1.1,  0.9,  1.1,  0.9
110061, 'NADA 2 1    ',       138, 1,    7,    1, 1,    1.027713,   -6.530545,  1.1,  0.9,  1.1,  0.9
110062, 'NADA 2 2    ',        18, 1,    7,    1, 1,    1.027713,   -6.530545,  1.1,  0.9,  1.1,  0.9
110063, 'NADA 2 3    ',        18, 1,    7,    1, 1,    1.027713,   -6.530545,  1.1,  0.9,  1.1,  0.9
110064, 'NADA 2 4    ',         1, 1,    7,    1, 1,    1.027713,   -6.530545,  1.1,  0.9,  1.1,  0.9
110065, 'KENDLETON 1 ',       138, 1,    7,    1, 1,   1.0230903,   -12.10872,  1.1,  0.9,  1.1,  0.9
110066, 'KENDLETON 1 ',        24, 1,    7,    1, 1,   1.0230903,   -12.10872,  1.1,  0.9,  1.1,  0.9
110067, 'KENDLETON 1 ',        24, 1,    7,    1, 1,   1.0230903,   -12.10872,  1.1,  0.9,  1.1,  0.9
110068, 'KENDLETON 1 ',         1, 1,    7,    1, 1,   1.0230903,   -12.10872,  1.1,  0.9,  1.1,  0.9
110069, 'PLEDGER 1 1 ',       138, 1,    7,    1, 1,    1.021806,   -9.693303,  1.1,  0.9,  1.1,  0.9
110070, 'PLEDGER 1 2 ',      13.8, 1,    7,    1, 1,    1.021806,   -9.693303,  1.1,  0.9,  1.1,  0.9
110071, 'PLEDGER 1 3 ',      13.8, 1,    7,    1, 1,    1.021806,   -9.693303,  1.1,  0.9,  1.1,  0.9
110072, 'PLEDGER 1 4 ',         1, 1,    7,    1, 1,    1.021806,   -9.693303,  1.1,  0.9,  1.1,  0.9
110073, 'DANEVANG 1 1',       138, 1,    7,    1, 1,   1.0255971,   -7.171018,  1.1,  0.9,  1.1,  0.9
110074, 'DANEVANG 1 2',      13.8, 1,    7,    1, 1,   1.0255971,   -7.171018,  1.1,  0.9,  1.1,  0.9
110075, 'DANEVANG 1 3',      13.8, 1,    7,    1, 1,   1.0255971,   -7.171018,  1.1,  0.9,  1.1,  0.9
110076, 'DANEVANG 1 4',         1, 1,    7,    1, 1,   1.0255971,   -7.171018,  1.1,  0.9,  1.1,  0.9
110077, 'DANEVANG 2 1',       138, 1,    7,    1, 1,   1.0217643,   -8.017345,  1.1,  0.9,  1.1,  0.9
110078, 'DANEVANG 2 2',        18, 1,    7,    1, 1,   1.0217643,   -8.017345,  1.1,  0.9,  1.1,  0.9
110079, 'DANEVANG 2 3',        18, 1,    7,    1, 1,   1.0217643,   -8.017345,  1.1,  0.9,  1.1,  0.9
110080, 'DANEVANG 2 4',         1, 1,    7,    1, 1,   1.0217643,   -8.017345,  1.1,  0.9,  1.1,  0.9
110081, 'ELMATON 1 1 ',       138, 1,    7,    1, 1,   1.0146134,   -4.139481,  1.1,  0.9,  1.1,  0.9
110082, 'ELMATON 1 2 ',        24, 1,    7,    1, 1,   1.0146134,   -4.139481,  1.1,  0.9,  1.1,  0.9
110083, 'ELMATON 1 3 ',        24, 1,    7,    1, 1,   1.0146134,   -4.139481,  1.1,  0.9,  1.1,  0.9
110084, 'ELMATON 1 4 ',         1, 1,    7,    1, 1,   1.0146134,   -4.139481,  1.1,  0.9,  1.1,  0.9
110085, 'BAY CITY 1 1',       138, 1,    7,    1, 1,   1.0283858,   -9.319997,  1.1,  0.9,  1.1,  0.9
110086, 'BAY CITY 1 2',        18, 1,    7,    1, 1,   1.0283858,   -9.319997,  1.1,  0.9,  1.1,  0.9
110087, 'BAY CITY 1 3',        18, 1,    7,    1, 1,   1.0283858,   -9.319997,  1.1,  0.9,  1.1,  0.9
110088, 'BAY CITY 1 4',         1, 1,    7,    1, 1,   1.0283858,   -9.319997,  1.1,  0.9,  1.1,  0.9
110089, 'PALACIOS 1 1',       138, 1,    7,    1, 1,   1.0239356,   -2.364095,  1.1,  0.9,  1.1,  0.9
110090, 'PALACIOS 1 2',        18, 1,    7,    1, 1,   1.0239356,   -2.364095,  1.1,  0.9,  1.1,  0.9
110091, 'PALACIOS 1 3',        18, 1,    7,    1, 1,   1.0239356,   -2.364095,  1.1,  0.9,  1.1,  0.9
110092, 'PALACIOS 1 4',         1, 1,    7,    1, 1,   1.0239356,   -2.364095,  1.1,  0.9,  1.1,  0.9
110093, 'MIDFIELD 1 1',       138, 1,    7,    1, 1,    1.009535,   -3.536299,  1.1,  0.9,  1.1,  0.9
110094, 'MIDFIELD 1 2',      13.8, 1,    7,    1, 1,   0.9650575,   -6.973774,  1.1,  0.9,  1.1,  0.9
110095, 'MIDFIELD 1 3',      13.8, 1,    7,    1, 1,   0.9650575,   -6.973774,  1.1,  0.9,  1.1,  0.9
110096, 'MIDFIELD 1 4',         1, 1,    7,    1, 1,   0.9650575,   -6.973774,  1.1,  0.9,  1.1,  0.9
110097, 'ELMATON 2 1 ',       138, 1,    7,    1, 1,     1.01813,   -4.531549,  1.1,  0.9,  1.1,  0.9
110098, 'ELMATON 2 2 ',      13.8, 1,    7,    1, 1,     1.01813,   -4.531549,  1.1,  0.9,  1.1,  0.9
110099, 'ELMATON 2 3 ',      13.8, 1,    7,    1, 1,     1.01813,   -4.531549,  1.1,  0.9,  1.1,  0.9
110100, 'ELMATON 2 4 ',         1, 1,    7,    1, 1,     1.01813,   -4.531549,  1.1,  0.9,  1.1,  0.9
110101, 'PALACIOS 2 1',       138, 1,    7,    1, 1,   1.0337231,   -1.639254,  1.1,  0.9,  1.1,  0.9
110102, 'PALACIOS 2 2',      13.8, 1,    7,    1, 1,   1.0337231,   -1.639254,  1.1,  0.9,  1.1,  0.9
110103, 'PALACIOS 2 3',      13.8, 1,    7,    1, 1,   1.0337231,   -1.639254,  1.1,  0.9,  1.1,  0.9
110104, 'PALACIOS 2 4',         1, 1,    7,    1, 1,   1.0337231,   -1.639254,  1.1,  0.9,  1.1,  0.9
110105, 'MATAGORDA 2 ',       138, 1,    7,    1, 1,   1.0279726,   -3.325632,  1.1,  0.9,  1.1,  0.9
110106, 'MATAGORDA 2 ',        18, 1,    7,    1, 1,   1.0279726,   -3.325632,  1.1,  0.9,  1.1,  0.9
110107, 'MATAGORDA 2 ',        18, 1,    7,    1, 1,   1.0279726,   -3.325632,  1.1,  0.9,  1.1,  0.9
110108, 'MATAGORDA 2 ',         1, 1,    7,    1, 1,   1.0279726,   -3.325632,  1.1,  0.9,  1.1,  0.9
110109, 'SWEENY 1 1  ',       138, 1,    7,    1, 1,   1.0356752,  -10.632944,  1.1,  0.9,  1.1,  0.9
110110, 'SWEENY 1 2  ',      13.8, 1,    7,    1, 1,   1.0356752,  -10.632944,  1.1,  0.9,  1.1,  0.9
110111, 'SWEENY 1 3  ',      13.8, 1,    7,    1, 1,   1.0356752,  -10.632944,  1.1,  0.9,  1.1,  0.9
110112, 'SWEENY 1 4  ',         1, 1,    7,    1, 1,   1.0356752,  -10.632944,  1.1,  0.9,  1.1,  0.9
110113, 'EDNA 2 1    ',       138, 1,    7,    1, 1,   1.0361981,    -3.69265,  1.1,  0.9,  1.1,  0.9
110114, 'EDNA 2 2    ',        18, 1,    7,    1, 1,   1.0361981,    -3.69265,  1.1,  0.9,  1.1,  0.9
110115, 'EDNA 2 3    ',        18, 1,    7,    1, 1,   1.0361981,    -3.69265,  1.1,  0.9,  1.1,  0.9
110116, 'EDNA 2 4    ',         1, 1,    7,    1, 1,   1.0361981,    -3.69265,  1.1,  0.9,  1.1,  0.9
110117, 'MARKHAM 1 1 ',       138, 1,    7,    1, 1,   1.0137923,   -4.654491,  1.1,  0.9,  1.1,  0.9
110118, 'ALTAIR 1 1  ',       138, 1,    7,    1, 1,   1.0281398,   -8.976583,  1.1,  0.9,  1.1,  0.9
110119, 'CEDAR LANE 2',       138, 1,    7,    1, 1,   1.0163975,    -8.70442,  1.1,  0.9,  1.1,  0.9
110120, 'BAY CITY 2 1',       138, 1,    7,    1, 1,   1.0247547,   -5.868602,  1.1,  0.9,  1.1,  0.9
110121, 'WADSWORTH 1 ',       138, 1,    7,    1, 1,   1.0221353,   -6.308827,  1.1,  0.9,  1.1,  0.9
110122, 'LA WARD 1 1 ',       138, 1,    7,    1, 1,   1.0242146,   -0.746418,  1.1,  0.9,  1.1,  0.9
110123, 'HUNGERFORD 2',       138, 1,    7,    1, 1,   1.0061513,  -13.423177,  1.1,  0.9,  1.1,  0.9
110124, 'GARWOOD 1 1 ',       138, 1,    7,    1, 1,   1.0378097,   -7.943878,  1.1,  0.9,  1.1,  0.9
110125, 'LANE CITY 2 ',       138, 1,    7,    1, 1,   1.0225243,   -9.856426,  1.1,  0.9,  1.1,  0.9
110126, 'BAY CITY 3 1',       345, 1,    7,    1, 1,   1.0352994,   -2.444048,  1.1,  0.9,  1.1,  0.9
110127, 'BAY CITY 3 2',       138, 1,    7,    1, 1,   1.0269539,   -5.369169,  1.1,  0.9,  1.1,  0.9
110128, 'EL CAMPO 3 1',       138, 1,    7,    1, 1,   1.0244504,   -7.196909,  1.1,  0.9,  1.1,  0.9
110129, 'BROOKSHIRE 1',       138, 1,    7,    1, 1,   1.0304784,  -19.011627,  1.1,  0.9,  1.1,  0.9
110130, 'EAGLE LAKE 1',       138, 1,    7,    1, 1,   1.0227884,  -10.747621,  1.1,  0.9,  1.1,  0.9
110131, 'SEALY 1 1   ',       138, 1,    7,    1, 1,   1.0352043,    -16.1641,  1.1,  0.9,  1.1,  0.9
110132, 'WHARTON 2 1 ',       138, 1,    7,    1, 1,   1.0208398,  -11.418891,  1.1,  0.9,  1.1,  0.9
110133, 'GANADO 2 1  ',       138, 1,    7,    1, 1,   1.0242185,   -4.916247,  1.1,  0.9,  1.1,  0.9
110134, 'EL CAMPO 4 1',       138, 1,    7,    1, 1,   1.0248284,   -7.077261,  1.1,  0.9,  1.1,  0.9
110135, 'MARKHAM 2 1 ',       138, 1,    7,    1, 1,   1.0199411,   -7.775494,  1.1,  0.9,  1.1,  0.9
110136, 'PALACIOS 3 1',       138, 1,    7,    1, 1,   1.0246454,   -1.200824,  1.1,  0.9,  1.1,  0.9
110137, 'PATTISON 1 1',       138, 1,    7,    1, 1,   1.0288302,  -16.894875,  1.1,  0.9,  1.1,  0.9
110138, 'BAY CITY 4 1',       138, 1,    7,    1, 1,   1.0190875,   -7.207088,  1.1,  0.9,  1.1,  0.9
110139, 'EDNA 3 1    ',       138, 1,    7,    1, 1,   1.0355376,   -3.234422,  1.1,  0.9,  1.1,  0.9
110140, 'BROOKSHIRE 2',       138, 1,    7,    1, 1,   1.0296379,  -17.492167,  1.1,  0.9,  1.1,  0.9
110141, 'SAN FELIPE 1',       138, 1,    7,    1, 1,   1.0342354,  -17.613456,  1.1,  0.9,  1.1,  0.9
110142, 'BROOKSHIRE 3',       138, 1,    7,    1, 1,   1.0235715,  -18.774772,  1.1,  0.9,  1.1,  0.9
110143, 'SEALY 2 1   ',       138, 1,    7,    1, 1,   1.0339228,  -17.572352,  1.1,  0.9,  1.1,  0.9
110144, 'SAN FELIPE 2',       138, 1,    7,    1, 1,   1.0361035,  -18.465273,  1.1,  0.9,  1.1,  0.9
110145, 'PRAIRIE VIEW',       138, 1,    7,    1, 1,   1.0183737,  -14.335278,  1.1,  0.9,  1.1,  0.9
110146, 'LISSIE 1 1  ',       138, 1,    7,    1, 1,    1.024069,  -14.106964,  1.1,  0.9,  1.1,  0.9
110147, 'BROOKSHIRE 4',       138, 1,    7,    1, 1,   1.0263652,  -19.336737,  1.1,  0.9,  1.1,  0.9
110148, 'BROOKSHIRE 5',       138, 1,    7,    1, 1,   1.0273558,  -17.322596,  1.1,  0.9,  1.1,  0.9
110149, 'BROOKSHIRE 6',       138, 1,    7,    1, 1,   1.0321019,  -17.595789,  1.1,  0.9,  1.1,  0.9
110150, 'HOCKLEY 1 1 ',       138, 1,    7,    1, 1,   1.0307262,  -18.853149,  1.1,  0.9,  1.1,  0.9
110151, 'EAGLE LAKE 2',       138, 1,    7,    1, 1,   1.0211007,  -11.130863,  1.1,  0.9,  1.1,  0.9
110152, 'BROOKSHIRE 7',       138, 1,    7,    1, 1,   1.0283193,  -17.111376,  1.1,  0.9,  1.1,  0.9
110153, 'HOCKLEY 2 1 ',       138, 1,    7,    1, 1,   1.0265381,   -19.65076,  1.1,  0.9,  1.1,  0.9
110154, 'WALLER 1 1  ',       138, 1,    7,    1, 1,   1.0326501,  -12.465369,  1.1,  0.9,  1.1,  0.9
110155, 'WALLER 2 1  ',       138, 1,    7,    1, 1,   1.0307626,  -13.454996,  1.1,  0.9,  1.1,  0.9
110156, 'PATTISON 2 1',       138, 1,    7,    1, 1,   1.0304511,  -16.752469,  1.1,  0.9,  1.1,  0.9
110157, 'WALLIS 1 1  ',       138, 1,    7,    1, 1,   1.0237512,  -15.875959,  1.1,  0.9,  1.1,  0.9
110158, 'KATY 1 1    ',       138, 1,    7,    1, 1,   1.0235006,  -20.967789,  1.1,  0.9,  1.1,  0.9
110159, 'SEALY 3 1   ',       138, 1,    7,    1, 1,   1.0350268,  -16.715546,  1.1,  0.9,  1.1,  0.9
110160, 'SEALY 4 1   ',       345, 1,    7,    1, 1,   1.0386225,  -11.576647,  1.1,  0.9,  1.1,  0.9
110161, 'SEALY 4 2   ',       138, 1,    7,    1, 1,   1.0385311,  -14.697859,  1.1,  0.9,  1.1,  0.9
110162, 'GALENA PARK ',       138, 1,    7,    1, 1,   1.0238628,  -24.819294,  1.1,  0.9,  1.1,  0.9
110163, 'GALENA PARK ',        69, 1,    7,    1, 1,   1.0189009,  -27.264507,  1.1,  0.9,  1.1,  0.9
110164, 'HUMBLE 1 1  ',        69, 1,    7,    1, 1,   1.0095404,  -27.873217,  1.1,  0.9,  1.1,  0.9
110165, 'HUMBLE 2 1  ',       138, 1,    7,    1, 1,   1.0134259,  -24.083319,  1.1,  0.9,  1.1,  0.9
110166, 'HUMBLE 2 2  ',        69, 1,    7,    1, 1,   1.0190849,   -27.31314,  1.1,  0.9,  1.1,  0.9
110167, 'HUMBLE 3 1  ',        69, 1,    7,    1, 1,   1.0162719,  -27.996859,  1.1,  0.9,  1.1,  0.9
110168, 'HOUSTON 1 1 ',        69, 1,    7,    1, 1,   1.0070288,  -28.481245,  1.1,  0.9,  1.1,  0.9
110169, 'HUMBLE 4 1  ',       138, 1,    7,    1, 1,   1.0198031,  -25.935223,  1.1,  0.9,  1.1,  0.9
110170, 'HUMBLE 4 2  ',        69, 1,    7,    1, 1,   1.0255017,  -27.964901,  1.1,  0.9,  1.1,  0.9
110171, 'HUMBLE 5 1  ',        69, 1,    7,    1, 1,   1.0154656,   -27.70895,  1.1,  0.9,  1.1,  0.9
110172, 'HUMBLE 6 1  ',       138, 1,    7,    1, 1,    1.004735,  -25.755245,  1.1,  0.9,  1.1,  0.9
110173, 'HUMBLE 6 2  ',        69, 1,    7,    1, 1,    1.007324,  -27.824013,  1.1,  0.9,  1.1,  0.9
110174, 'HOUSTON 2 1 ',       138, 1,    7,    1, 1,   1.0198586,  -25.573047,  1.1,  0.9,  1.1,  0.9
110175, 'HOUSTON 2 2 ',        69, 1,    7,    1, 1,   1.0045898,  -28.231907,  1.1,  0.9,  1.1,  0.9
110176, 'HUMBLE 7 1  ',       138, 1,    7,    1, 1,   1.0095317,  -25.039593,  1.1,  0.9,  1.1,  0.9
110177, 'HUMBLE 7 2  ',        69, 1,    7,    1, 1,   1.0120652,  -27.357591,  1.1,  0.9,  1.1,  0.9
110178, 'HUMBLE 8 1  ',        69, 1,    7,    1, 1,    1.028912,   -28.16171,  1.1,  0.9,  1.1,  0.9
110179, 'HOUSTON 3 1 ',        69, 1,    7,    1, 1,   1.0118046,  -28.080469,  1.1,  0.9,  1.1,  0.9
110180, 'KATY 2 1    ',        69, 1,    7,    1, 1,    1.021232,  -25.487166,  1.1,  0.9,  1.1,  0.9
110181, 'CYPRESS 1 1 ',        69, 1,    7,    1, 1,   1.0210098,  -25.027415,  1.1,  0.9,  1.1,  0.9
110182, 'KATY 3 1    ',        69, 1,    7,    1, 1,   1.0183715,  -25.676378,  1.1,  0.9,  1.1,  0.9
110183, 'KATY 4 1    ',        69, 1,    7,    1, 1,   1.0236602,  -25.460249,  1.1,  0.9,  1.1,  0.9
110184, 'KATY 5 1    ',        69, 1,    7,    1, 1,   1.0219001,  -25.457192,  1.1,  0.9,  1.1,  0.9
110185, 'KATY 6 1    ',        69, 1,    7,    1, 1,   1.0292835,  -24.287306,  1.1,  0.9,  1.1,  0.9
110186, 'KATY 7 1    ',        69, 1,    7,    1, 1,   1.0283577,  -24.628186,  1.1,  0.9,  1.1,  0.9
110187, 'KATY 8 1    ',        69, 1,    7,    1, 1,    1.023763,  -25.437645,  1.1,  0.9,  1.1,  0.9
110188, 'KATY 9 1    ',       138, 1,    7,    1, 1,   1.0260315,  -21.478678,  1.1,  0.9,  1.1,  0.9
110189, 'KATY 9 2    ',        69, 1,    7,    1, 1,   1.0337614,  -24.606566,  1.1,  0.9,  1.1,  0.9
110190, 'KATY 9 3    ',        18, 1,    7,    1, 1,   1.0274858,  -22.137851,  1.1,  0.9,  1.1,  0.9
110191, 'KATY 9 4    ',         1, 1,    7,    1, 1,   1.0274858,  -22.137851,  1.1,  0.9,  1.1,  0.9
110192, 'CYPRESS 2 1 ',        69, 1,    7,    1, 1,   1.0216758,  -25.412298,  1.1,  0.9,  1.1,  0.9
110193, 'KATY 10 1   ',        69, 1,    7,    1, 1,   1.0198251,   -25.04627,  1.1,  0.9,  1.1,  0.9
110194, 'CYPRESS 3 1 ',        69, 1,    7,    1, 1,   1.0270579,  -25.501707,  1.1,  0.9,  1.1,  0.9
110195, 'KATY 11 1   ',        69, 1,    7,    1, 1,   1.0323061,  -25.426055,  1.1,  0.9,  1.1,  0.9
110196, 'KATY 12 1   ',        69, 1,    7,    1, 1,   1.0253178,  -25.435054,  1.1,  0.9,  1.1,  0.9
110197, 'KATY 13 1   ',        69, 1,    7,    1, 1,   1.0210061,   -24.94877,  1.1,  0.9,  1.1,  0.9
110198, 'CYPRESS 4 1 ',        69, 1,    7,    1, 1,   1.0179648,  -25.223755,  1.1,  0.9,  1.1,  0.9
110199, 'KATY 14 1   ',        69, 1,    7,    1, 1,   1.0296429,  -24.712413,  1.1,  0.9,  1.1,  0.9
110200, 'CYPRESS 5 1 ',        69, 1,    7,    1, 1,   1.0207218,  -25.387166,  1.1,  0.9,  1.1,  0.9
...
0 / END OF BUS DATA, BEGIN LOAD DATA
110001,  1, 1,    7,    1,      0.22,      0.08, 0, 0, 0, 0, 1, 1, 0
110005,  1, 1,    7,    1,      79.7,     38.66, 0, 0, 0, 0, 1, 1, 0
110009,  1, 1,    7,    1,       5.9,      2.03, 0, 0, 0, 0, 1, 1, 0
110013,  1, 1,    7,    1,      15.3,      3.54, 0, 0, 0, 0, 1, 1, 0
110017,  1, 1,    7,    1,        11,      2.71, 0, 0, 0, 0, 1, 1, 0
110021,  1, 1,    7,    1,       8.3,      1.88, 0, 0, 0, 0, 1, 1, 0
110025,  1, 1,    7,    1,       7.3,      2.11, 0, 0, 0, 0, 1, 1, 0
110029,  1, 1,    7,    1,       7.7,      2.03, 0, 0, 0, 0, 1, 1, 0
110033,  1, 1,    7,    1,       7.5,       1.8, 0, 0, 0, 0, 1, 1, 0
110037,  1, 1,    7,    1,      4.25,      0.68, 0, 0, 0, 0, 1, 1, 0
110041,  1, 1,    7,    1,      2.56,      0.53, 0, 0, 0, 0, 1, 1, 0
110045,  1, 1,    7,    1,      1.73,      0.53, 0, 0, 0, 0, 1, 1, 0
110049,  1, 1,    7,    1,      3.09,       0.3, 0, 0, 0, 0, 1, 1, 0
110053,  1, 1,    7,    1,      4.25,      0.68, 0, 0, 0, 0, 1, 1, 0
110057,  1, 1,    7,    1,      0.61,      0.21, 0, 0, 0, 0, 1, 1, 0
110061,  1, 1,    7,    1,      1.58,      0.38, 0, 0, 0, 0, 1, 1, 0
110065,  1, 1,    7,    1,      3.24,      1.05, 0, 0, 0, 0, 1, 1, 0
110069,  1, 1,    7,    1,      10.4,      2.26, 0, 0, 0, 0, 1, 1, 0
110073,  1, 1,    7,    1,       5.7,      1.13, 0, 0, 0, 0, 1, 1, 0
110077,  1, 1,    7,    1,      2.41,      0.45, 0, 0, 0, 0, 1, 1, 0
110081,  1, 1,    7,    1,       4.7,      0.22, 0, 0, 0, 0, 1, 1, 0
110085,  1, 1,    7,    1,      4.07,      1.05, 0, 0, 0, 0, 1, 1, 0
110089,  1, 1,    7,    1,      3.89,      0.38, 0, 0, 0, 0, 1, 1, 0
110093,  1, 1,    7,    1,      0.58,      0.14, 0, 0, 0, 0, 1, 1, 0
110096,  1, 1,    7,    1,       115,      75.2, 0, 0, 0, 0, 1, 1, 0
110097,  1, 1,    7,    1,      1.95,      0.45, 0, 0, 0, 0, 1, 1, 0
110101,  1, 1,    7,    1,      0.99,       0.3, 0, 0, 0, 0, 1, 1, 0
110105,  1, 1,    7,    1,       4.8,       0.3, 0, 0, 0, 0, 1, 1, 0
110109,  1, 1,    7,    1,      0.09,      0.01, 0, 0, 0, 0, 1, 1, 0
110113,  1, 1,    7,    1,      0.66,      0.22, 0, 0, 0, 0, 1, 1, 0
110117,  1, 1,    7,    1,       4.7,      0.75, 0, 0, 0, 0, 1, 1, 0
110118,  1, 1,    7,    1,      0.63,      0.22, 0, 0, 0, 0, 1, 1, 0
110119,  1, 1,    7,    1,      1.95,      0.68, 0, 0, 0, 0, 1, 1, 0
110120,  1, 1,    7,    1,      2.18,       0.6, 0, 0, 0, 0, 1, 1, 0
110121,  1, 1,    7,    1,      0.49,      0.16, 0, 0, 0, 0, 1, 1, 0
110122,  1, 1,    7,    1,      0.92,       0.3, 0, 0, 0, 0, 1, 1, 0
110123,  1, 1,    7,    1,    111.14,     79.15, 0, 0, 0, 0, 1, 1, 0
110124,  1, 1,    7,    1,      0.46,      0.09, 0, 0, 0, 0, 1, 1, 0
110125,  1, 1,    7,    1,      26.8,      4.33, 0, 0, 0, 0, 1, 1, 0
110127,  1, 1,    7,    1,     222.5,      81.8, 0, 0, 0, 0, 1, 1, 0
110128,  1, 1,    7,    1,      41.4,       6.7, 0, 0, 0, 0, 1, 1, 0
110129,  1, 1,    7,    1,      37.7,      8.26, 0, 0, 0, 0, 1, 1, 0
110130,  1, 1,    7,    1,      10.3,      1.13, 0, 0, 0, 0, 1, 1, 0
110131,  1, 1,    7,    1,      15.5,      2.56, 0, 0, 0, 0, 1, 1, 0
110132,  1, 1,    7,    1,     100.5,      9.37, 0, 0, 0, 0, 1, 1, 0
110133,  1, 1,    7,    1,       6.3,      1.95, 0, 0, 0, 0, 1, 1, 0
110134,  1, 1,    7,    1,       4.6,       0.6, 0, 0, 0, 0, 1, 1, 0
110135,  1, 1,    7,    1,      21.8,       6.7, 0, 0, 0, 0, 1, 1, 0
110136,  1, 1,    7,    1,       9.5,      3.09, 0, 0, 0, 0, 1, 1, 0
110137,  1, 1,    7,    1,      14.2,      2.34, 0, 0, 0, 0, 1, 1, 0
110138,  1, 1,    7,    1,      14.9,       5.3, 0, 0, 0, 0, 1, 1, 0
110139,  1, 1,    7,    1,      0.48,      0.08, 0, 0, 0, 0, 1, 1, 0
110140,  1, 1,    7,    1,       9.4,      1.35, 0, 0, 0, 0, 1, 1, 0
110141,  1, 1,    7,    1,      18.1,      4.97, 0, 0, 0, 0, 1, 1, 0
110142,  1, 1,    7,    1,     21.46,      16.5, 0, 0, 0, 0, 1, 1, 0
110143,  1, 1,    7,    1,       6.3,       0.9, 0, 0, 0, 0, 1, 1, 0
110144,  1, 1,    7,    1,     68.94,      33.9, 0, 0, 0, 0, 1, 1, 0
110145,  1, 1,    7,    1,      1.88,      0.38, 0, 0, 0, 0, 1, 1, 0
110146,  1, 1,    7,    1,      0.96,      0.22, 0, 0, 0, 0, 1, 1, 0
110147,  1, 1,    7,    1,       6.5,      0.83, 0, 0, 0, 0, 1, 1, 0
110148,  1, 1,    7,    1,      2.86,      0.22, 0, 0, 0, 0, 1, 1, 0
110149,  1, 1,    7,    1,       9.8,      3.54, 0, 0, 0, 0, 1, 1, 0
110150,  1, 1,    7,    1,       5.2,      1.58, 0, 0, 0, 0, 1, 1, 0
110151,  1, 1,    7,    1,       6.4,      2.03, 0, 0, 0, 0, 1, 1, 0
110152,  1, 1,    7,    1,      4.07,      0.53, 0, 0, 0, 0, 1, 1, 0
110153,  1, 1,    7,    1,       5.4,      1.95, 0, 0, 0, 0, 1, 1, 0
110154,  1, 1,    7,    1,       5.7,      1.73, 0, 0, 0, 0, 1, 1, 0
110155,  1, 1,    7,    1,       4.9,      1.73, 0, 0, 0, 0, 1, 1, 0
110156,  1, 1,    7,    1,       4.6,      0.75, 0, 0, 0, 0, 1, 1, 0
110157,  1, 1,    7,    1,       6.3,      0.68, 0, 0, 0, 0, 1, 1, 0
110158,  1, 1,    7,    1,      2.86,      0.75, 0, 0, 0, 0, 1, 1, 0
110159,  1, 1,    7,    1,      2.79,      0.98, 0, 0, 0, 0, 1, 1, 0
110161,  1, 1,    7,    1,     11.14,      6.62, 0, 0, 0, 0, 1, 1, 0
110163,  1, 1,    7,    1,      42.1,      12.6, 0, 0, 0, 0, 1, 1, 0
110164,  1, 1,    7,    1,      30.2,      11.5, 0, 0, 0, 0, 1, 1, 0
110166,  1, 1,    7,    1,      37.9,       5.7, 0, 0, 0, 0, 1, 1, 0
110167,  1, 1,    7,    1,      25.7,      3.24, 0, 0, 0, 0, 1, 1, 0
110168,  1, 1,    7,    1,      26.4,       5.6, 0, 0, 0, 0, 1, 1, 0
110170,  1, 1,    7,    1,      40.2,        11, 0, 0, 0, 0, 1, 1, 0
110171,  1, 1,    7,    1,       4.9,      1.58, 0, 0, 0, 0, 1, 1, 0
110173,  1, 1,    7,    1,      54.7,      11.6, 0, 0, 0, 0, 1, 1, 0
110175,  1, 1,    7,    1,      43.1,      11.7, 0, 0, 0, 0, 1, 1, 0
110177,  1, 1,    7,    1,      76.9,     18.75, 0, 0, 0, 0, 1, 1, 0
110178,  1, 1,    7,    1,      33.3,      10.3, 0, 0, 0, 0, 1, 1, 0
110179,  1, 1,    7,    1,      23.4,       7.1, 0, 0, 0, 0, 1, 1, 0
110180,  1, 1,    7,    1,        10,      2.18, 0, 0, 0, 0, 1, 1, 0
110181,  1, 1,    7,    1,      17.2,     10.58, 0, 0, 0, 0, 1, 1, 0
110182,  1, 1,    7,    1,       6.4,      1.95, 0, 0, 0, 0, 1, 1, 0
110183,  1, 1,    7,    1,       9.2,      3.31, 0, 0, 0, 0, 1, 1, 0
110184,  1, 1,    7,    1,       5.3,      1.28, 0, 0, 0, 0, 1, 1, 0
110185,  1, 1,    7,    1,      3.89,      1.13, 0, 0, 0, 0, 1, 1, 0
110186,  1, 1,    7,    1,       5.3,      0.83, 0, 0, 0, 0, 1, 1, 0
110187,  1, 1,    7,    1,      16.9,      7.94, 0, 0, 0, 0, 1, 1, 0
110189,  1, 1,    7,    1,       7.9,       1.2, 0, 0, 0, 0, 1, 1, 0
110192,  1, 1,    7,    1,       6.4,      1.58, 0, 0, 0, 0, 1, 1, 0
110193,  1, 1,    7,    1,       5.7,      1.43, 0, 0, 0, 0, 1, 1, 0
110194,  1, 1,    7,    1,      3.61,      0.15, 0, 0, 0, 0, 1, 1, 0
110195,  1, 1,    7,    1,       4.8,       1.5, 0, 0, 0, 0, 1, 1, 0
110196,  1, 1,    7,    1,      2.41,      0.53, 0, 0, 0, 0, 1, 1, 0
110197,  1, 1,    7,    1,         8,      2.71, 0, 0, 0, 0, 1, 1, 0
110198,  1, 1,    7,    1,      16.1,      8.28, 0, 0, 0, 0, 1, 1, 0
110199,  1, 1,    7,    1,       4.8,       1.5, 0, 0, 0, 0, 1, 1, 0
110200,  1, 1,    7,    1,       7.3,      2.11, 0, 0, 0, 0, 1, 1, 0
110201,  1, 1,    7,    1,      4.42,       0.9, 0, 0, 0, 0, 1, 1, 0
110202,  1, 1,    7,    1,      3.24,      0.68, 0, 0, 0, 0, 1, 1, 0
110203,  1, 1,    7,    1,      3.01,      0.22, 0, 0, 0, 0, 1, 1, 0
110204,  1, 1,    7,    1,      1.33,       0.3, 0, 0, 0, 0, 1, 1, 0
110205,  1, 1,    7,    1,      3.69,       0.6, 0, 0, 0, 0, 1, 1, 0
110206,  1, 1,    7,    1,       5.8,       1.5, 0, 0, 0, 0, 1, 1, 0
110207,  1, 1,    7,    1,      3.89,      0.83, 0, 0, 0, 0, 1, 1, 0
110208,  1, 1,    7,    1,       5.3,      0.75, 0, 0, 0, 0, 1, 1, 0
110209,  1, 1,    7,    1,         8,      2.94, 0, 0, 0, 0, 1, 1, 0
110210,  1, 1,    7,    1,       7.5,       1.8, 0, 0, 0, 0, 1, 1, 0
110211,  1, 1,    7,    1,       5.3,      1.95, 0, 0, 0, 0, 1, 1, 0
110212,  1, 1,    7,    1,      63.7,      41.6, 0, 0, 0, 0, 1, 1, 0
110213,  1, 1,    7,    1,       6.8,      2.34, 0, 0, 0, 0, 1, 1, 0
110214,  1, 1,    7,    1,       4.9,      1.73, 0, 0, 0, 0, 1, 1, 0
110215,  1, 1,    7,    1,       5.4,      1.43, 0, 0, 0, 0, 1, 1, 0
110216,  1, 1,    7,    1,       8.7,      2.34, 0, 0, 0, 0, 1, 1, 0
110217,  1, 1,    7,    1,         7,      2.11, 0, 0, 0, 0, 1, 1, 0
110218,  1, 1,    7,    1,      4.33,       1.2, 0, 0, 0, 0, 1, 1, 0
110219,  1, 1,    7,    1,      3.69,      1.13, 0, 0, 0, 0, 1, 1, 0
110220,  1, 1,    7,    1,      3.89,      0.75, 0, 0, 0, 0, 1, 1, 0
110221,  1, 1,    7,    1,      1.95,      0.45, 0, 0, 0, 0, 1, 1, 0
110222,  1, 1,    7,    1,      3.39,       1.2, 0, 0, 0, 0, 1, 1, 0
110223,  1, 1,    7,    1,       7.4,      2.64, 0, 0, 0, 0, 1, 1, 0
110224,  1, 1,    7,    1,       3.8,       1.2, 0, 0, 0, 0, 1, 1, 0
110225,  1, 1,    7,    1,       5.6,      0.15, 0, 0, 0, 0, 1, 1, 0
110226,  1, 1,    7,    1,         6,      1.05, 0, 0, 0, 0, 1, 1, 0
110227,  1, 1,    7,    1,      2.49,      0.45, 0, 0, 0, 0, 1, 1, 0
110228,  1, 1,    7,    1,      3.09,       0.9, 0, 0, 0, 0, 1, 1, 0
110229,  1, 1,    7,    1,       4.6,      1.13, 0, 0, 0, 0, 1, 1, 0
110230,  1, 1,    7,    1,      2.18,       0.6, 0, 0, 0, 0, 1, 1, 0
110231,  1, 1,    7,    1,       1.8,      0.38, 0, 0, 0, 0, 1, 1, 0
110232,  1, 1,    7,    1,       6.2,       1.8, 0, 0, 0, 0, 1, 1, 0
110233,  1, 1,    7,    1,      2.86,      0.83, 0, 0, 0, 0, 1, 1, 0
110234,  1, 1,    7,    1,      3.24,      0.83, 0, 0, 0, 0, 1, 1, 0
110235,  1, 1,    7,    1,         5,      0.15, 0, 0, 0, 0, 1, 1, 0
110236,  1, 1,    7,    1,      3.01,      0.75, 0, 0, 0, 0, 1, 1, 0
110237,  1, 1,    7,    1,      1.32,      0.38, 0, 0, 0, 0, 1, 1, 0
110238,  1, 1,    7,    1,       6.1,      1.95, 0, 0, 0, 0, 1, 1, 0
110239,  1, 1,    7,    1,      4.33,       1.2, 0, 0, 0, 0, 1, 1, 0
110240,  1, 1,    7,    1,       5.7,      1.35, 0, 0, 0, 0, 1, 1, 0
110241,  1, 1,    7,    1,      1.95,      0.38, 0, 0, 0, 0, 1, 1, 0
110242,  1, 1,    7,    1,       4.6,      1.58, 0, 0, 0, 0, 1, 1, 0
110243,  1, 1,    7,    1,       4.8,      1.43, 0, 0, 0, 0, 1, 1, 0
110244,  1, 1,    7,    1,      4.25,      1.43, 0, 0, 0, 0, 1, 1, 0
110245,  1, 1,    7,    1,       5.4,      0.98, 0, 0, 0, 0, 1, 1, 0
110246,  1, 1,    7,    1,       6.5,      1.95, 0, 0, 0, 0, 1, 1, 0
110247,  1, 1,    7,    1,      4.25,      0.68, 0, 0, 0, 0, 1, 1, 0
110248,  1, 1,    7,    1,       5.6,      0.98, 0, 0, 0, 0, 1, 1, 0
110249,  1, 1,    7,    1,       5.6,       0.9, 0, 0, 0, 0, 1, 1, 0
110250,  1, 1,    7,    1,       4.5,      1.28, 0, 0, 0, 0, 1, 1, 0
110251,  1, 1,    7,    1,         5,      1.05, 0, 0, 0, 0, 1, 1, 0
110252,  1, 1,    7,    1,      2.79,      0.38, 0, 0, 0, 0, 1, 1, 0
110253,  1, 1,    7,    1,      4.25,      0.38, 0, 0, 0, 0, 1, 1, 0
110254,  1, 1,    7,    1,       5.7,      0.75, 0, 0, 0, 0, 1, 1, 0
110255,  1, 1,    7,    1,       7.6,      0.98, 0, 0, 0, 0, 1, 1, 0
110256,  1, 1,    7,    1,       5.6,      1.88, 0, 0, 0, 0, 1, 1, 0
110257,  1, 1,    7,    1,       5.7,      1.28, 0, 0, 0, 0, 1, 1, 0
110258,  1, 1,    7,    1,      2.26,      0.68, 0, 0, 0, 0, 1, 1, 0
110259,  1, 1,    7,    1,       7.2,      1.13, 0, 0, 0, 0, 1, 1, 0
110260,  1, 1,    7,    1,      1.14,      0.15, 0, 0, 0, 0, 1, 1, 0
110261,  1, 1,    7,    1,       8.9,      2.56, 0, 0, 0, 0, 1, 1, 0
110263,  1, 1,    7,    1,       8.9,      2.64, 0, 0, 0, 0, 1, 1, 0
110264,  1, 1,    7,    1,       4.6,       0.9, 0, 0, 0, 0, 1, 1, 0
110265,  1, 1,    7,    1,       7.4,      0.22, 0, 0, 0, 0, 1, 1, 0
110266,  1, 1,    7,    1,       7.2,      0.53, 0, 0, 0, 0, 1, 1, 0
110267,  1, 1,    7,    1,       6.7,      1.65, 0, 0, 0, 0, 1, 1, 0
110268,  1, 1,    7,    1,      16.1,      8.73, 0, 0, 0, 0, 1, 1, 0
110269,  1, 1,    7,    1,       6.8,       1.8, 0, 0, 0, 0, 1, 1, 0
110270,  1, 1,    7,    1,      4.25,      1.05, 0, 0, 0, 0, 1, 1, 0
110271,  1, 1,    7,    1,       6.8,       1.8, 0, 0, 0, 0, 1, 1, 0
110272,  1, 1,    7,    1,         8,      1.05, 0, 0, 0, 0, 1, 1, 0
110274,  1, 1,    7,    1,       7.6,      1.88, 0, 0, 0, 0, 1, 1, 0
110275,  1, 1,    7,    1,       9.3,      2.49, 0, 0, 0, 0, 1, 1, 0
110276,  1, 1,    7,    1,       5.1,      1.05, 0, 0, 0, 0, 1, 1, 0
110277,  1, 1,    7,    1,     10.59,       1.5, 0, 0, 0, 0, 1, 1, 0
110278,  1, 1,    7,    1,     11.46,      2.48, 0, 0, 0, 0, 1, 1, 0
110279,  1, 1,    7,    1,      1.06,      0.08, 0, 0, 0, 0, 1, 1, 0
110280,  1, 1,    7,    1,      2.41,       0.6, 0, 0, 0, 0, 1, 1, 0
110281,  1, 1,    7,    1,      1.65,      0.15, 0, 0, 0, 0, 1, 1, 0
110282,  1, 1,    7,    1,      1.05,      0.15, 0, 0, 0, 0, 1, 1, 0
110283,  1, 1,    7,    1,       1.8,      0.53, 0, 0, 0, 0, 1, 1, 0
110284,  1, 1,    7,    1,      1.06,      0.38, 0, 0, 0, 0, 1, 1, 0
110285,  1, 1,    7,    1,      0.75,      0.22, 0, 0, 0, 0, 1, 1, 0
110286,  1, 1,    7,    1,      1.18,      0.38, 0, 0, 0, 0, 1, 1, 0
110287,  1, 1,    7,    1,       0.9,       0.3, 0, 0, 0, 0, 1, 1, 0
110288,  1, 1,    7,    1,       5.6,      1.35, 0, 0, 0, 0, 1, 1, 0
110290,  1, 1,    7,    1,        14,      2.86, 0, 0, 0, 0, 1, 1, 0
110292,  1, 1,    7,    1,       7.3,      2.41, 0, 0, 0, 0, 1, 1, 0
110294,  1, 1,    7,    1,      12.6,       0.9, 0, 0, 0, 0, 1, 1, 0
110296,  1, 1,    7,    1,      19.2,      3.31, 0, 0, 0, 0, 1, 1, 0
110299,  1, 1,    7,    1,       8.8,      1.73, 0, 0, 0, 0, 1, 1, 0
110300,  1, 1,    7,    1,         9,       1.8, 0, 0, 0, 0, 1, 1, 0
110301,  1, 1,    7,    1,       9.8,      0.83, 0, 0, 0, 0, 1, 1, 0
110302,  1, 1,    7,    1,      4.25,       0.6, 0, 0, 0, 0, 1, 1, 0
110303,  1, 1,    7,    1,       5.7,       1.2, 0, 0, 0, 0, 1, 1, 0
110304,  1, 1,    7,    1,       8.1,      0.98, 0, 0, 0, 0, 1, 1, 0
110305,  1, 1,    7,    1,      12.3,       1.5, 0, 0, 0, 0, 1, 1, 0
...
0 / END OF LOAD DATA, BEGIN FIXED SHUNT DATA
110101, 1, 1,       0,    26.6
110109, 1, 1,       0,    36.9
110126, 1, 1,       0,   76.84
110144, 1, 1,       0,   100.8
110155, 1, 1,       0,    36.6
110160, 1, 1,       0,   45.83
110178, 1, 1,       0,   140.2
110187, 1, 1,       0,    28.6
110194, 1, 1,       0,    93.3
110206, 1, 1,       0,    10.6
110224, 1, 1,       0,    86.4
110252, 1, 1,       0,      84
110266, 1, 1,       0,   42.02
110267, 1, 1,       0,   102.7
110276, 1, 1,       0,    41.4
110295, 1, 1,       0,    33.3
110306, 1, 1,       0,    80.1
110350, 1, 1,       0,    31.5
110351, 1, 1,       0,    52.3
110364, 1, 1,       0,   149.4
110367, 1, 1,       0,   117.6
110426, 1, 1,       0,   156.4
110440, 1, 1,       0,     121
110479, 1, 1,       0,    78.4
110491, 1, 1,       0,    11.1
110538, 1, 1,       0,   179.2
110558, 1, 1,       0,  128.92
110574, 1, 1,       0,   99.18
110585, 1, 1,       0,   153.2
110594, 1, 1,       0,    57.6
110619, 1, 1,       0,    21.4
110633, 1, 1,       0,   29.81
110634, 1, 1,       0,   57.56
110653, 1, 1,       0,   101.5
110675, 1, 1,       0,   38.07
110684, 1, 1,       0,   65.05
110685, 1, 1,       0,    24.6
110710, 1, 1,       0,     224
110712, 1, 1,       0,   170.4
110761, 1, 1,       0,    99.1
110776, 1, 1,       0,   185.3
110784, 1, 1,       0,   214.8
110805, 1, 1,       0,   53.33
110809, 1, 1,       0,    98.2
110834, 1, 1,       0,     174
110846, 1, 1,       0,  115.31
110883, 1, 1,       0,  170.96
110893, 1, 1,       0,    21.8
110896, 1, 1,       0,    46.8
110913, 1, 1,       0,   118.4
110918, 1, 1,       0,  129.73
110943, 1, 1,       0,  222.09
110972, 1, 1,       0,  279.72
110994, 1, 1,       0,   74.11
111008, 1, 1,       0,   189.6
111024, 1, 1,       0,    52.8
111031, 1, 1,       0,    39.6
111035, 1, 1,       0,  257.45
111038, 1, 1,       0,    45.6
111085, 1, 1,       0,      74
111095, 1, 1,       0,   118.4
111112, 1, 1,       0,   190.2
111126, 1, 1,       0,     9.4
111178, 1, 1,       0,     8.2
111207, 1, 1,       0,  240.88
111284, 1, 1,       0,   61.86
111362, 1, 1,       0,  141.72
111370, 1, 1,       0,  208.64
111389, 1, 1,       0,   75.74
111393, 1, 1,       0,  106.41
120057, 1, 1,       0,   11.68
120132, 1, 1,       0,    15.9
120186, 1, 1,       0,   20.31
120191, 1, 1,       0,   10.69
120203, 1, 1,       0,    13.7
120221, 1, 1,       0,      25
120273, 1, 1,       0,      71
120286, 1, 1,       0,    22.5
120319, 1, 1,       0,   140.1
120351, 1, 1,       0,      81
120361, 1, 1,       0,    41.1
120365, 1, 1,       0,   74.65
120383, 1, 1,       0,   132.8
120388, 1, 1,       0,   224.2
120411, 1, 1,       0,  194.72
120437, 1, 1,       0,   79.44
120447, 1, 1,       0,     0.2
120471, 1, 1,       0,     297
130049, 1, 1,       0,   463.6
130066, 1, 1,       0,   223.3
130073, 1, 1,       0,    74.1
130136, 1, 1,       0,      39
130164, 1, 1,       0,     240
130194, 1, 1,       0,    13.8
130211, 1, 1,       0,    24.8
130234, 1, 1,       0,     147
130248, 1, 1,       0,    53.5
130256, 1, 1,       0,      66
130279, 1, 1,       0,   322.2
130304, 1, 1,       0,   122.4
130310, 1, 1,       0,     116
130316, 1, 1,       0,    63.9
130320, 1, 1,       0,   181.8
130329, 1, 1,       0,   133.6
130354, 1, 1,       0,    39.5
130357, 1, 1,       0,  496.74
140036, 1, 1,       0,   29.83
140044, 1, 1,       0,    19.6
140048, 1, 1,       0,   13.51
140061, 1, 1,       0,   170.8
140093, 1, 1,       0,    48.6
140107, 1, 1,       0,    62.4
140109, 1, 1,       0,    46.8
140166, 1, 1,       0,    41.2
140203, 1, 1,       0,    99.6
140204, 1, 1,       0,   158.9
140213, 1, 1,       0,  206.66
140266, 1, 1,       0,   165.9
140303, 1, 1,       0,  248.42
150007, 1, 1,       0,    14.9
150014, 1, 1,       0,    10.7
150042, 1, 1,       0,   15.05
150049, 1, 1,       0,     6.7
150071, 1, 1,       0,    39.1
150112, 1, 1,       0,     5.9
150120, 1, 1,       0,    33.7
150133, 1, 1,       0,     8.6
150136, 1, 1,       0,   129.6
150152, 1, 1,       0,  310.44
150182, 1, 1,       0,    61.2
150228, 1, 1,       0,    55.8
150242, 1, 1,       0,   139.4
150245, 1, 1,       0,    29.6
150265, 1, 1,       0,   363.5
150274, 1, 1,       0,      14
150276, 1, 1,       0,     111
150305, 1, 1,       0,    33.6
150318, 1, 1,       0,      51
150319, 1, 1,       0,   103.6
150329, 1, 1,       0,   119.9
150353, 1, 1,       0,    60.5
150367, 1, 1,       0,  179.88
150375, 1, 1,       0,   15.65
150388, 1, 1,       0,   23.96
150430, 1, 1,       0,   67.88
150440, 1, 1,       0,  116.94
150475, 1, 1,       0,   424.3
150479, 1, 1,       0,  319.56
150493, 1, 1,       0,   238.2
150497, 1, 1,       0,  342.13
150513, 1, 1,       0,  139.96
150526, 1, 1,       0,    19.2
150532, 1, 1,       0,   153.3
150550, 1, 1,       0,  328.38
160013, 1, 1,       0,   11.02
160037, 1, 1,       0,   16.58
160041, 1, 1,       0,    7.47
160085, 1, 1,       0,    0.75
160091, 1, 1,       0,    1.55
160092, 1, 1,       0,   -10.4
160106, 1, 1,       0,    5.27
160114, 1, 1,       0,    22.3
160118, 1, 1,       0,    -5.7
160156, 1, 1,       0,  112.49
160168, 1, 1,       0,   19.35
160203, 1, 1,       0,   62.44
160215, 1, 1,       0,   -17.4
160247, 1, 1,       0,   13.22
160256, 1, 1,       0,   16.29
160284, 1, 1,       0,   15.47
170035, 1, 1,       0,    35.2
170042, 1, 1,       0,   24.98
170058, 1, 1,       0,   21.85
170064, 1, 1,       0,      14
170074, 1, 1,       0,    0.48
170078, 1, 1,       0,    5.13
170080, 1, 1,       0,    3.15
170086, 1, 1,       0,    93.1
170094, 1, 1,       0,    97.9
170108, 1, 1,       0,    87.4
170111, 1, 1,       0,   109.6
170141, 1, 1,       0,    11.1
170147, 1, 1,       0,    22.5
170148, 1, 1,       0,      26
170163, 1, 1,       0,      15
170167, 1, 1,       0,    19.2
170213, 1, 1,       0,      96
170218, 1, 1,       0,   134.1
170240, 1, 1,       0,      93
170263, 1, 1,       0,   143.8
170286, 1, 1,       0,   154.8
170290, 1, 1,       0,  110.18
170291, 1, 1,       0,   164.4
170308, 1, 1,       0,      67
170317, 1, 1,       0,     294
170346, 1, 1,       0,    66.4
170357, 1, 1,       0,    61.6
170364, 1, 1,       0,   108.8
170365, 1, 1,       0,   196.8
170370, 1, 1,       0,    52.3
...
0 / END OF FIXED SHUNT DATA, BEGIN GENERATOR DATA
111180,  1,    643.52,      1.54,    379.71,   -250.07,   1.0385, 0,   895.2, 0, 1, 0, 0, 1, 1, 100,       746,     87.52, 1, 1, 0, 1, 0, 1, 0, 1, 0, 1
111181,  1,    630.21,      1.54,    381.24,   -231.35,   1.0373, 0,   898.8, 0, 1, 0, 0, 1, 1, 100,       749,    303.73, 1, 1, 0, 1, 0, 1, 0, 1, 0, 1
111183,  1,     46.58,     21.81,     27.49,     -15.8,     1.04, 0,    64.8, 0, 1, 0, 0, 1, 1, 100,        54,     15.73, 1, 1, 0, 1, 0, 1, 0, 1, 0, 1
111184,  1,     23.42,     27.49,     27.49,    -18.36,     1.04, 0,    64.8, 0, 1, 0, 0, 1, 1, 100,        54,       6.3, 1, 1, 0, 1, 0, 1, 0, 1, 0, 1
111185,  1,     46.58,     22.62,     27.49,    -16.92,     1.04, 0,    64.8, 0, 1, 0, 0, 1, 1, 100,        54,     23.18, 1, 1, 0, 1, 0, 1, 0, 1, 0, 1
111186,  1,     43.13,     21.28,     25.45,     -14.5,     1.04, 0,      60, 0, 1, 0, 0, 1, 1, 100,        50,     23.19, 1, 1, 0, 1, 0, 1, 0, 1, 0, 1
111187,  1,     55.21,     28.68,     32.58,    -17.09,     1.04, 0,    76.8, 0, 1, 0, 0, 1, 1, 100,        64,     21.89, 1, 1, 0, 1, 0, 1, 0, 1, 0, 1
111188,  1,      43.4,      17.2,     27.49,    -18.67,     1.04, 0,    64.8, 0, 1, 0, 0, 1, 1, 100,        54,     26.28, 1, 1, 0, 1, 0, 1, 0, 1, 0, 1
111190,  1,     60.57,       5.9,     52.94,    -32.25,     1.04, 0,   124.8, 0, 1, 0, 0, 1, 1, 100,       104,      27.6, 1, 1, 0, 1, 0, 1, 0, 1, 0, 1
111191,  1,     81.41,      8.33,     52.94,    -33.75,     1.04, 0,   124.8, 0, 1, 0, 0, 1, 1, 100,       104,     48.44, 1, 1, 0, 1, 0, 1, 0, 1, 0, 1
111192,  1,     49.17,     10.12,     29.01,    -16.93,     1.04, 0,    68.4, 0, 1, 0, 0, 1, 1, 100,        57,     20.52, 1, 1, 0, 1, 0, 1, 0, 1, 0, 1
111193,  1,     32.72,      6.75,     29.01,    -15.98,     1.04, 0,    68.4, 0, 1, 0, 0, 1, 1, 100,        57,     14.65, 1, 1, 0, 1, 0, 1, 0, 1, 0, 1
111194,  1,     49.17,      8.94,     29.01,    -16.85,     1.04, 0,    68.4, 0, 1, 0, 0, 1, 1, 100,        57,     28.41, 1, 1, 0, 1, 0, 1, 0, 1, 0, 1
111195,  1,     49.17,      5.73,     29.01,    -16.91,     1.04, 0,    68.4, 0, 1, 0, 0, 1, 1, 100,        57,     24.09, 1, 1, 0, 1, 0, 1, 0, 1, 0, 1
111196,  1,     49.17,      7.51,     29.01,    -15.26,     1.04, 0,    68.4, 0, 1, 0, 0, 1, 1, 100,        57,     14.15, 1, 1, 0, 1, 0, 1, 0, 1, 0, 1
111197,  1,     49.17,      5.05,     29.01,    -18.09,     1.04, 0,    68.4, 0, 1, 0, 0, 1, 1, 100,        57,     13.05, 1, 1, 0, 1, 0, 1, 0, 1, 0, 1
111198,  1,     49.17,      5.02,     29.01,    -17.45,     1.04, 0,    68.4, 0, 1, 0, 0, 1, 1, 100,        57,     13.03, 1, 1, 0, 1, 0, 1, 0, 1, 0, 1
111199,  1,     43.14,      4.83,     29.01,    -18.57,     1.04, 0,    68.4, 0, 1, 0, 0, 1, 1, 100,        57,     25.07, 1, 1, 0, 1, 0, 1, 0, 1, 0, 1
111200,  1,     44.26,      7.35,     29.52,    -15.64,     1.04, 0,    69.6, 0, 1, 0, 0, 1, 1, 100,        58,     25.87, 1, 1, 0, 1, 0, 1, 0, 1, 0, 1
111201,  1,     50.03,      4.64,     29.52,    -14.74,     1.04, 0,    69.6, 0, 1, 0, 0, 1, 1, 100,        58,      25.9, 1, 1, 0, 1, 0, 1, 0, 1, 0, 1
111202,  1,     50.03,      5.57,     29.52,    -16.54,     1.04, 0,    69.6, 0, 1, 0, 0, 1, 1, 100,        58,     10.82, 1, 1, 0, 1, 0, 1, 0, 1, 0, 1
111203,  1,     50.03,       8.9,     29.52,    -15.65,     1.04, 0,    69.6, 0, 1, 0, 0, 1, 1, 100,        58,      8.97, 1, 1, 0, 1, 0, 1, 0, 1, 0, 1
111204,  1,     36.08,      7.07,     29.52,    -16.45,     1.04, 0,    69.6, 0, 1, 0, 0, 1, 1, 100,        58,     17.69, 1, 1, 0, 1, 0, 1, 0, 1, 0, 1
111205,  1,     45.14,      7.16,     29.52,    -19.79,     1.04, 0,    69.6, 0, 1, 0, 0, 1, 1, 100,        58,     26.75, 1, 1, 0, 1, 0, 1, 0, 1, 0, 1
111206,  1,         0,         0,      6.62,      -3.8,     1.04, 0,    15.6, 0, 1, 0, 0, 1, 0, 100,        13,      3.03, 1, 1, 0, 1, 0, 1, 0, 1, 0, 1
111208,  1,    572.78,      3.33,    309.42,   -167.63,   1.0385, 0,   796.8, 0, 1, 0, 0, 1, 1, 100,       664,     149.2, 1, 1, 0, 1, 0, 1, 0, 1, 0, 1
111209,  1,    571.92,      3.33,    308.96,   -223.78,   1.0385, 0,   795.6, 0, 1, 0, 0, 1, 1, 100,       663,     76.51, 1, 1, 0, 1, 0, 1, 0, 1, 0, 1
111210,  1,         0,         0,    284.26,   -206.12,     1.04, 0,     732, 0, 1, 0, 0, 1, 0, 100,       610,    224.35, 1, 1, 0, 1, 0, 1, 0, 1, 0, 1
111211,  1,         0,         0,    268.88,   -194.27,     1.04, 0,   692.4, 0, 1, 0, 0, 1, 0, 100,       577,    183.07, 1, 1, 0, 1, 0, 1, 0, 1, 0, 1
111212,  1,         0,         0,      6.62,     -3.76,     1.04, 0,    15.6, 0, 1, 0, 0, 1, 0, 100,        13,      1.49, 1, 1, 0, 1, 0, 1, 0, 1, 0, 1
111212,  2,    476.17,      3.33,    280.97,   -182.79,    1.038, 0,   662.4, 0, 1, 0, 0, 1, 1, 100,       552,    165.98, 1, 1, 0, 1, 0, 1, 0, 1, 0, 1
111213,  1,     235.5,      3.33,    138.96,    -70.38,   1.0403, 0,   327.6, 0, 1, 0, 0, 1, 1, 100,       273,      34.5, 1, 1, 0, 1, 0, 1, 0, 1, 0, 1
111214,  1,    145.78,      0.45,     86.02,    -58.46,     1.04, 0,   202.8, 0, 1, 0, 0, 1, 1, 100,       169,      44.2, 1, 1, 0, 1, 0, 1, 0, 1, 0, 1
111215,  1,    145.78,      3.33,     86.02,    -49.07,   1.0408, 0,   202.8, 0, 1, 0, 0, 1, 1, 100,       169,     29.81, 1, 1, 0, 1, 0, 1, 0, 1, 0, 1
111217,  1,   1104.16,      65.3,    471.04,   -365.47,    1.042, 0,    1536, 0, 1, 0, 0, 1, 1, 100,      1280,    201.18, 1, 1, 0, 1, 0, 1, 0, 1, 0, 1
111218,  1,   1104.16,      65.3,    471.04,   -382.86,   1.0413, 0,    1536, 0, 1, 0, 0, 1, 1, 100,      1280,    178.29, 1, 1, 0, 1, 0, 1, 0, 1, 0, 1
111220,  1,     60.57,      13.1,     41.23,    -21.32,     1.04, 0,    97.2, 0, 1, 0, 0, 1, 1, 100,        81,     34.89, 1, 1, 0, 1, 0, 1, 0, 1, 0, 1
111221,  1,     69.87,     14.04,     41.23,    -21.95,     1.04, 0,    97.2, 0, 1, 0, 0, 1, 1, 100,        81,      13.8, 1, 1, 0, 1, 0, 1, 0, 1, 0, 1
111223,  1,         0,         0,     15.27,    -10.32,     1.04, 0,      36, 0, 1, 0, 0, 1, 0, 100,        30,      3.97, 1, 1, 0, 1, 0, 1, 0, 1, 0, 1
111231,  1,      64.7,     20.26,     38.17,    -25.11,     1.04, 0,      90, 0, 1, 0, 0, 1, 1, 100,        75,     20.03, 1, 1, 0, 1, 0, 1, 0, 1, 0, 1
111232,  1,     31.27,     19.91,     38.17,    -25.04,     1.04, 0,      90, 0, 1, 0, 0, 1, 1, 100,        75,       7.5, 1, 1, 0, 1, 0, 1, 0, 1, 0, 1
111233,  1,      64.7,     13.21,     38.17,     -22.4,     1.04, 0,      90, 0, 1, 0, 0, 1, 1, 100,        75,     27.46, 1, 1, 0, 1, 0, 1, 0, 1, 0, 1
111234,  1,     43.08,     18.53,     38.17,     -20.5,     1.04, 0,      90, 0, 1, 0, 0, 1, 1, 100,        75,     19.31, 1, 1, 0, 1, 0, 1, 0, 1, 0, 1
111237,  1,     30.86,      19.3,     21.63,    -10.78,     1.04, 0,      51, 0, 1, 0, 0, 1, 1, 100,      42.5,     17.39, 1, 1, 0, 1, 0, 1, 0, 1, 0, 1
111241,  1,         0,         0,     14.25,     -8.08,     1.04, 0,    33.6, 0, 1, 0, 0, 1, 0, 100,        28,     13.43, 1, 1, 0, 1, 0, 1, 0, 1, 0, 1
111242,  1,         0,         0,     14.25,     -9.25,     1.04, 0,    33.6, 0, 1, 0, 0, 1, 0, 100,        28,     12.12, 1, 1, 0, 1, 0, 1, 0, 1, 0, 1
111242,  2,         0,         0,      9.16,     -5.82,     1.04, 0,    21.6, 0, 1, 0, 0, 1, 0, 100,        18,      5.59, 1, 1, 0, 1, 0, 1, 0, 1, 0, 1
111243,  1,         0,         0,      9.16,     -5.59,     1.04, 0,    21.6, 0, 1, 0, 0, 1, 0, 100,        18,      5.77, 1, 1, 0, 1, 0, 1, 0, 1, 0, 1
111243,  2,         0,         0,      9.16,     -6.07,     1.04, 0,    21.6, 0, 1, 0, 0, 1, 0, 100,        18,      1.93, 1, 1, 0, 1, 0, 1, 0, 1, 0, 1
111244,  1,         0,         0,      9.16,     -6.13,     1.04, 0,    21.6, 0, 1, 0, 0, 1, 0, 100,        18,       2.1, 1, 1, 0, 1, 0, 1, 0, 1, 0, 1
111246,  1,    112.76,     71.15,     71.26,    -39.11,     1.04, 0,     168, 0, 1, 0, 0, 1, 1, 100,       140,     68.38, 1, 1, 0, 1, 0, 1, 0, 1, 0, 1
111247,  1,     77.64,        43,     45.81,    -22.96,     1.04, 0,     108, 0, 1, 0, 0, 1, 1, 100,        90,     36.59, 1, 1, 0, 1, 0, 1, 0, 1, 0, 1
111248,  1,         0,         0,     16.29,     -9.57,     1.04, 0,    38.4, 0, 1, 0, 0, 1, 0, 100,        32,      14.6, 1, 1, 0, 1, 0, 1, 0, 1, 0, 1
111249,  1,         0,         0,     16.29,    -10.33,     1.04, 0,    38.4, 0, 1, 0, 0, 1, 0, 100,        32,     14.84, 1, 1, 0, 1, 0, 1, 0, 1, 0, 1
111249,  2,         0,         0,     16.29,     -9.32,     1.04, 0,    38.4, 0, 1, 0, 0, 1, 0, 100,        32,     11.82, 1, 1, 0, 1, 0, 1, 0, 1, 0, 1
111251,  1,     56.93,     14.96,     33.59,    -22.39,     1.04, 0,    79.2, 0, 1, 0, 0, 1, 1, 100,        66,     12.15, 1, 1, 0, 1, 0, 1, 0, 1, 0, 1
111252,  1,     41.15,     15.36,     33.59,    -20.06,     1.04, 0,    79.2, 0, 1, 0, 0, 1, 1, 100,        66,     20.23, 1, 1, 0, 1, 0, 1, 0, 1, 0, 1
111253,  1,     38.91,     14.88,     31.56,    -19.86,     1.04, 0,    74.4, 0, 1, 0, 0, 1, 1, 100,        62,     19.26, 1, 1, 0, 1, 0, 1, 0, 1, 0, 1
111254,  1,     59.52,     13.18,     35.12,    -18.26,     1.04, 0,    82.8, 0, 1, 0, 0, 1, 1, 100,        69,     10.92, 1, 1, 0, 1, 0, 1, 0, 1, 0, 1
111260,  1,      47.8,     35.12,     35.12,    -22.98,     1.04, 0,    82.8, 0, 1, 0, 0, 1, 1, 100,        69,     25.93, 1, 1, 0, 1, 0, 1, 0, 1, 0, 1
111262,  1,         0,         0,     13.04,    -12.05,     1.04, 0,    45.6, 0, 1, 0, 0, 1, 0, 100,        38,     14.26, 1, 1, 0, 1, 0, 1, 0, 1, 0, 1
111264,  1,         0,         0,     17.81,     -9.49,     1.04, 0,      42, 0, 1, 0, 0, 1, 0, 100,        35,      9.49, 1, 1, 0, 1, 0, 1, 0, 1, 0, 1
111266,  1,     20.67,      10.4,     16.83,    -15.71,     1.04, 0,      54, 0, 1, 0, 0, 1, 1, 100,        45,       6.4, 1, 1, 0, 1, 0, 1, 0, 1, 0, 1
111266,  2,     25.37,      10.4,     14.24,    -13.58,     1.04, 0,      54, 0, 1, 0, 0, 1, 1, 100,        45,     11.11, 1, 1, 0, 1, 0, 1, 0, 1, 0, 1
111267,  1,      64.7,     32.49,     38.17,    -20.63,     1.04, 0,      90, 0, 1, 0, 0, 1, 1, 100,        75,      24.7, 1, 1, 0, 1, 0, 1, 0, 1, 0, 1
111268,  1,     60.38,     23.38,     35.63,    -18.38,     1.04, 0,      84, 0, 1, 0, 0, 1, 1, 100,        70,     34.86, 1, 1, 0, 1, 0, 1, 0, 1, 0, 1
111270,  1,     96.97,     55.14,     61.13,    -37.48,   1.0565, 0,  144.12, 0, 1, 0, 0, 1, 1, 100,     120.1,      58.9, 1, 1, 0, 1, 0, 1, 0, 1, 0, 1
111271,  1,     52.29,      9.85,     35.12,    -17.45,     1.04, 0,    82.8, 0, 1, 0, 0, 1, 1, 100,        69,     30.42, 1, 1, 0, 1, 0, 1, 0, 1, 0, 1
111272,  1,     60.21,      7.44,     35.53,    -23.45,     1.04, 0,   83.76, 0, 1, 0, 0, 1, 1, 100,      69.8,     32.31, 1, 1, 0, 1, 0, 1, 0, 1, 0, 1
111273,  1,     33.42,     25.35,     35.53,    -24.08,     1.04, 0,   83.76, 0, 1, 0, 0, 1, 1, 100,      69.8,     11.29, 1, 1, 0, 1, 0, 1, 0, 1, 0, 1
111274,  1,     42.19,      4.94,     35.68,    -18.43,     1.04, 0,   84.12, 0, 1, 0, 0, 1, 1, 100,      70.1,     19.97, 1, 1, 0, 1, 0, 1, 0, 1, 0, 1
111275,  1,     60.38,     14.82,     35.63,    -20.08,     1.04, 0,      84, 0, 1, 0, 0, 1, 1, 100,        70,      8.34, 1, 1, 0, 1, 0, 1, 0, 1, 0, 1
111276,  1,        59,      6.72,     34.82,     -17.9,     1.04, 0,   82.08, 0, 1, 0, 0, 1, 1, 100,      68.4,     21.65, 1, 1, 0, 1, 0, 1, 0, 1, 0, 1
111280,  1,     86.32,      7.44,     70.75,    -35.41,     1.04, 0,   166.8, 0, 1, 0, 0, 1, 1, 100,       139,     42.26, 1, 1, 0, 1, 0, 1, 0, 1, 0, 1
111281,  1,     89.71,      7.12,     52.94,    -26.52,     1.04, 0,   124.8, 0, 1, 0, 0, 1, 1, 100,       104,     37.35, 1, 1, 0, 1, 0, 1, 0, 1, 0, 1
111282,  1,     89.71,      7.08,     52.94,    -29.59,     1.04, 0,   124.8, 0, 1, 0, 0, 1, 1, 100,       104,     32.22, 1, 1, 0, 1, 0, 1, 0, 1, 0, 1
111283,  1,     89.71,         6,     52.94,    -28.22,     1.04, 0,   124.8, 0, 1, 0, 0, 1, 1, 100,       104,     13.48, 1, 1, 0, 1, 0, 1, 0, 1, 0, 1
111286,  1,     53.44,      8.86,     48.66,    -32.33,     1.04, 0,  114.72, 0, 1, 0, 0, 1, 1, 100,      95.6,     23.14, 1, 1, 0, 1, 0, 1, 0, 1, 0, 1
111287,  1,     63.17,      5.02,     48.66,    -24.43,     1.04, 0,  114.72, 0, 1, 0, 0, 1, 1, 100,      95.6,     32.87, 1, 1, 0, 1, 0, 1, 0, 1, 0, 1
111288,  1,     82.12,      4.49,     48.46,    -26.93,     1.04, 0,  114.24, 0, 1, 0, 0, 1, 1, 100,      95.2,      46.3, 1, 1, 0, 1, 0, 1, 0, 1, 0, 1
111289,  1,     48.08,      4.69,     34.76,    -19.32,     1.04, 0,   81.96, 0, 1, 0, 0, 1, 1, 100,      68.3,     26.43, 1, 1, 0, 1, 0, 1, 0, 1, 0, 1
111290,  1,     55.01,      4.18,     34.76,     -18.6,     1.04, 0,   81.96, 0, 1, 0, 0, 1, 1, 100,      68.3,     33.36, 1, 1, 0, 1, 0, 1, 0, 1, 0, 1
111291,  1,         0,         0,     17.81,    -10.98,     1.04, 0,      42, 0, 1, 0, 0, 1, 0, 100,        35,     15.74, 1, 1, 0, 1, 0, 1, 0, 1, 0, 1
111292,  1,     51.07,      7.14,     30.13,    -19.35,     1.04, 0,   71.04, 0, 1, 0, 0, 1, 1, 100,      59.2,      24.7, 1, 1, 0, 1, 0, 1, 0, 1, 0, 1
111295,  1,     59.52,     18.58,     35.12,    -18.16,     1.04, 0,    82.8, 0, 1, 0, 0, 1, 1, 100,        69,     16.48, 1, 1, 0, 1, 0, 1, 0, 1, 0, 1
111296,  1,     59.52,      7.52,     35.12,    -21.25,     1.04, 0,    82.8, 0, 1, 0, 0, 1, 1, 100,        69,     22.97, 1, 1, 0, 1, 0, 1, 0, 1, 0, 1
111297,  1,         0,         0,     17.31,     -9.12,     1.04, 0,    40.8, 0, 1, 0, 0, 1, 0, 100,        34,      5.19, 1, 1, 0, 1, 0, 1, 0, 1, 0, 1
111301,  1,     79.64,      9.41,     81.44,    -54.23,     1.04, 0,     192, 0, 1, 0, 0, 1, 1, 100,       160,     28.92, 1, 1, 0, 1, 0, 1, 0, 1, 0, 1
111302,  1,     62.97,      6.35,     37.16,    -21.88,     1.04, 0,    87.6, 0, 1, 0, 0, 1, 1, 100,        73,     30.33, 1, 1, 0, 1, 0, 1, 0, 1, 0, 1
111303,  1,     43.91,         7,     37.16,    -24.81,     1.04, 0,    87.6, 0, 1, 0, 0, 1, 1, 100,        73,     20.77, 1, 1, 0, 1, 0, 1, 0, 1, 0, 1
111304,  1,     62.97,      5.67,     37.16,    -21.09,     1.04, 0,    87.6, 0, 1, 0, 0, 1, 1, 100,        73,     24.52, 1, 1, 0, 1, 0, 1, 0, 1, 0, 1
111306,  1,     60.88,      0.99,     55.48,    -36.09,     1.04, 0,   130.8, 0, 1, 0, 0, 1, 1, 100,       109,     26.33, 1, 1, 0, 1, 0, 1, 0, 1, 0, 1
111307,  1,     94.03,     55.48,     55.48,    -30.52,   1.0569, 0,   130.8, 0, 1, 0, 0, 1, 1, 100,       109,     27.46, 1, 1, 0, 1, 0, 1, 0, 1, 0, 1
111308,  1,     81.45,      1.46,     55.48,    -34.66,     1.04, 0,   130.8, 0, 1, 0, 0, 1, 1, 100,       109,      46.9, 1, 1, 0, 1, 0, 1, 0, 1, 0, 1
111309,  1,     94.03,      1.39,     55.48,    -37.92,     1.04, 0,   130.8, 0, 1, 0, 0, 1, 1, 100,       109,     47.78, 1, 1, 0, 1, 0, 1, 0, 1, 0, 1
111312,  1,     69.13,     19.89,     83.99,     -47.1,     1.04, 0,     198, 0, 1, 0, 0, 1, 1, 100,       165,     16.83, 1, 1, 0, 1, 0, 1, 0, 1, 0, 1
111313,  1,    142.33,     -6.92,     83.99,    -51.29,   1.0352, 0,     198, 0, 1, 0, 0, 1, 1, 100,       165,     49.54, 1, 1, 0, 1, 0, 1, 0, 1, 0, 1
111314,  1,    142.33,     -6.92,     83.99,    -53.86,   1.0338, 0,     198, 0, 1, 0, 0, 1, 1, 100,       165,     71.73, 1, 1, 0, 1, 0, 1, 0, 1, 0, 1
111315,  1,    142.33,     -6.92,     83.99,    -47.67,    1.036, 0,     198, 0, 1, 0, 0, 1, 1, 100,       165,     58.52, 1, 1, 0, 1, 0, 1, 0, 1, 0, 1
111316,  1,     51.76,      7.14,     30.54,    -16.52,     1.04, 0,      72, 0, 1, 0, 0, 1, 1, 100,        60,      8.55, 1, 1, 0, 1, 0, 1, 0, 1, 0, 1
111318,  1,     89.29,      9.48,     82.46,    -48.35,     1.04, 0,   194.4, 0, 1, 0, 0, 1, 1, 100,       162,     37.94, 1, 1, 0, 1, 0, 1, 0, 1, 0, 1
111319,  1,    139.75,    -31.65,     82.46,    -46.29,   1.0282, 0,   194.4, 0, 1, 0, 0, 1, 1, 100,       162,     69.97, 1, 1, 0, 1, 0, 1, 0, 1, 0, 1
111320,  1,    140.61,     12.26,     82.97,    -54.72,     1.04, 0,   195.6, 0, 1, 0, 0, 1, 1, 100,       163,     59.93, 1, 1, 0, 1, 0, 1, 0, 1, 0, 1
111321,  1,     93.38,     14.25,     81.95,    -42.94,     1.04, 0,   193.2, 0, 1, 0, 0, 1, 1, 100,       161,     42.35, 1, 1, 0, 1, 0, 1, 0, 1, 0, 1
111322,  1,    117.32,      8.44,     69.22,    -34.05,     1.04, 0,   163.2, 0, 1, 0, 0, 1, 1, 100,       136,     63.29, 1, 1, 0, 1, 0, 1, 0, 1, 0, 1
111324,  1,    150.56,    109.43,    109.43,    -65.43,   1.0598, 0,     258, 0, 1, 0, 0, 1, 1, 100,       215,     82.41, 1, 1, 0, 1, 0, 1, 0, 1, 0, 1
111325,  1,    159.59,      6.73,     94.16,    -54.86,     1.04, 0,     222, 0, 1, 0, 0, 1, 1, 100,       185,     90.78, 1, 1, 0, 1, 0, 1, 0, 1, 0, 1
111326,  1,    159.59,      5.88,     94.16,    -53.28,     1.04, 0,     222, 0, 1, 0, 0, 1, 1, 100,       185,     44.07, 1, 1, 0, 1, 0, 1, 0, 1, 0, 1
111327,  1,    157.86,      5.59,     93.15,    -46.34,     1.04, 0,   219.6, 0, 1, 0, 0, 1, 1, 100,       183,     66.98, 1, 1, 0, 1, 0, 1, 0, 1, 0, 1
111329,  1,         0,         0,      5.48,     -4.02,     1.04, 0,   14.04, 0, 1, 0, 0, 1, 0, 100,      11.7,      5.26, 1, 1, 0, 1, 0, 1, 0, 1, 0, 1
111330,  1,      64.7,     21.75,     38.17,    -21.38,     1.04, 0,      90, 0, 1, 0, 0, 1, 1, 100,        75,      9.54, 1, 1, 0, 1, 0, 1, 0, 1, 0, 1
111333,  1,    110.38,     -0.43,    139.97,    -95.08,     1.04, 0,     330, 0, 1, 0, 0, 1, 1, 100,       275,    110.38, 1, 1, 0, 1, 0, 1, 0, 1, 0, 1
111334,  1,    150.96,      0.26,     89.07,    -45.43,     1.04, 0,     210, 0, 1, 0, 0, 1, 1, 100,       175,     74.33, 1, 1, 0, 1, 0, 1, 0, 1, 0, 1
111335,  1,         0,         0,     89.07,     -56.3,     1.04, 0,     210, 0, 1, 0, 0, 1, 0, 100,       175,     77.27, 1, 1, 0, 1, 0, 1, 0, 1, 0, 1
111336,  1,    121.52,      0.46,     89.07,     -50.6,     1.04, 0,     210, 0, 1, 0, 0, 1, 1, 100,       175,     38.81, 1, 1, 0, 1, 0, 1, 0, 1, 0, 1
111339,  1,    166.49,     57.01,     98.24,    -62.61,   1.0521, 0,   231.6, 0, 1, 0, 0, 1, 1, 100,       193,     95.32, 1, 1, 0, 1, 0, 1, 0, 1, 0, 1
111340,  1,    123.45,      3.44,     84.49,    -50.27,     1.04, 0,   199.2, 0, 1, 0, 0, 1, 1, 100,       166,     37.65, 1, 1, 0, 1, 0, 1, 0, 1, 0, 1
111341,  1,     143.2,     57.01,     84.49,    -54.88,    1.053, 0,   199.2, 0, 1, 0, 0, 1, 1, 100,       166,     44.21, 1, 1, 0, 1, 0, 1, 0, 1, 0, 1
111343,  1,     32.78,      9.43,     19.34,    -11.83,     1.04, 0,    45.6, 0, 1, 0, 0, 1, 1, 100,        38,     10.31, 1, 1, 0, 1, 0, 1, 0, 1, 0, 1
111344,  1,     32.78,      6.17,     19.34,    -10.22,     1.04, 0,    45.6, 0, 1, 0, 0, 1, 1, 100,        38,     18.13, 1, 1, 0, 1, 0, 1, 0, 1, 0, 1
111344,  2,     17.12,      6.17,     19.34,    -10.69,     1.04, 0,    45.6, 0, 1, 0, 0, 1, 1, 100,        38,      5.07, 1, 1, 0, 1, 0, 1, 0, 1, 0, 1
111345,  1,     32.78,     19.34,     19.34,    -10.52,     1.04, 0,    45.6, 0, 1, 0, 0, 1, 1, 100,        38,      6.14, 1, 1, 0, 1, 0, 1, 0, 1, 0, 1
111347,  1,     126.9,     48.64,    143.54,    -92.95,   1.0522, 0,   338.4, 0, 1, 0, 0, 1, 1, 100,       282,     37.51, 1, 1, 0, 1, 0, 1, 0, 1, 0, 1
111348,  1,     77.92,      7.12,     86.43,    -52.35,     1.04, 0,  203.76, 0, 1, 0, 0, 1, 1, 100,     169.8,      24.1, 1, 1, 0, 1, 0, 1, 0, 1, 0, 1
111349,  1,     74.45,     10.24,     86.43,    -49.18,     1.04, 0,  203.76, 0, 1, 0, 0, 1, 1, 100,     169.8,     20.63, 1, 1, 0, 1, 0, 1, 0, 1, 0, 1
111350,  1,     89.28,      8.69,     86.43,    -44.44,     1.04, 0,  203.76, 0, 1, 0, 0, 1, 1, 100,     169.8,     35.46, 1, 1, 0, 1, 0, 1, 0, 1, 0, 1
111351,  1,    146.47,     12.87,     86.43,    -47.08,     1.04, 0,  203.76, 0, 1, 0, 0, 1, 1, 100,     169.8,     32.88, 1, 1, 0, 1, 0, 1, 0, 1, 0, 1
...